/*--------------------------------*- C++ -*----------------------------------*\
| =========                 |                                                 |
| \\      /  F ield         | OpenFOAM: The Open Source CFD Toolbox           |
|  \\    /   O peration     | Version:  v2012                                 |
|   \\  /    A nd           | Website:  www.openfoam.com                      |
|    \\/     M anipulation  |                                                 |
\*---------------------------------------------------------------------------*/
FoamFile
{
    version     2.0;
    format      ascii;
    class       extendedFeatureEdgeMesh;
    location    "constant/extendedFeatureEdgeMesh";
    object      UMaineVolturn_squareSupport.extendedFeatureEdgeMesh;
}
// * * * * * * * * * * * * * * * * * * * * * * * * * * * * * * * * * * * * * //

// points

556
(
(137.5 129.330001831 15)
(155.975997925 84.0643005371 15)
(157.746002197 85.592300415 15)
(156.994003296 174.712005615 15)
(157.009994507 85.0942993164 15)
(157.738006592 85.5883026123 15)
(155.981994629 165.927993774 15)
(157.751998901 85.5962982178 15)
(156.996002197 174.714004517 15)
(157.748001099 164.404006958 15)
(165.768005371 173.699996948 15)
(137.56199646 129.292007446 14.9899997711)
(137.361999512 120.592002869 14.9899997711)
(137.634002686 129.248001099 14.968000412)
(137.591995239 129.272003174 14.986000061)
(130.001998901 125.143997192 14.9739999771)
(137.617996216 129.257995605 14.9739999771)
(137.580001831 129.281997681 14.984000206)
(130.001998901 125.136001587 14.9759998322)
(157.686004639 85.5582962036 15)
(157.735992432 85.5863037109 15)
(137.628005981 129.251998901 14.9720001221)
(137.632003784 129.248001099 14.970000267)
(137.636001587 129.248001099 14.970000267)
(156.996002197 174.712005615 15)
(130 125.103996277 14.982000351)
(129.998001099 125.027999878 14.998000145)
(137.570007324 129.287994385 14.9919996262)
(155.981994629 165.929992676 15)
(130 125.111999512 14.984000206)
(137.613998413 129.257995605 14.9779996872)
(130 125.083999634 14.9919996262)
(165.768005371 173.697998047 15)
(130 125.120002747 14.9799995422)
(157.826004028 85.6382980347 14.9899997711)
(137.432006836 129.363998413 14.9639997482)
(137.658004761 129.231994629 14.9580001831)
(137.638000488 129.246002197 14.968000412)
(137.647994995 129.240005493 14.9639997482)
(130 125.041999817 14.998000145)
(130 125.075996399 14.9899997711)
(137.634002686 129.248001099 14.970000267)
(137.604003906 129.26600647 14.982000351)
(137.563995361 129.289993286 14.9899997711)
(137.582000732 129.277999878 14.986000061)
(137.54800415 129.302001953 14.9960002899)
(137.542007446 129.304000854 14.9940004349)
(137.595993042 129.272003174 15)
(137.62399292 129.253997803 14.9739999771)
(137.399993896 120.613998413 14.984000206)
(130 125.055999756 14.9960002899)
(130 125.101997375 14.982000351)
(130 125.120002747 14.9779996872)
(130.001998901 125.13999939 14.9779996872)
(137.70199585 129.203994751 15)
(130 125.124000549 14.9799995422)
(130.001998901 125.166000366 14.968000412)
(157.468002319 175.055999756 11.5)
(142.216003418 125 -13)
(131.38999939 131.248001099 -13)
(131.38999939 118.748001099 -13)
(138.115997314 128.908004761 15)
(137.807998657 129.136001587 15)
(130.003997803 125.218002319 15)
(137.12600708 120.473999023 15)
(137.352005005 120.587997437 15)
(137.363998413 120.59400177 14.9879999161)
(131.38999939 131.248001099 -20)
(131.38999939 118.748001099 -20)
(142.216003418 125 -20)
(137.361999512 120.59400177 14.9879999161)
(130 125.066001892 14.9899997711)
(129.998001099 125.064002991 14.9919996262)
(89.4980010986 124.930000305 15)
(89.4980010986 124.861999512 15)
(89.4980010986 125.13999939 14.9779996872)
(89.4980010986 125.071998596 14.9919996262)
(89.5 125 15)
(77 125 15)
(77.1139984131 123.804000854 15)
(77.43800354 122.697998047 15)
(161.865997314 175.972000122 15)
(161.813995361 175.98399353 15)
(155.462005615 77.0562973022 15)
(156.158004761 76.0802993774 15)
(156.992004395 75.2843017578 15)
(157.054000854 75.2342987061 15)
(158.12600708 74.5702972412 15)
(159.255996704 74.1443023682 15)
(162.492004395 86.2182998657 15)
(162.427993774 86.2362976074 15)
(157.251998901 85.2762985229 15)
(157.132003784 85.1863021851 15)
(157.313995361 85.3182983398 15)
(157.37600708 85.3602981567 15)
(157.43800354 85.4022979736 15)
(157.5 85.4422988892 15)
(157.56199646 85.4822998047 15)
(157.62399292 85.5203018188 15)
(137.378005981 129.395996094 15)
(137.268005371 129.453994751 15)
(137.042007446 129.56199646 15)
(136.815994263 129.656005859 15)
(136.358001709 129.809997559 15)
(137.156005859 129.509994507 15)
(136.248001099 129.839996338 15)
(130.003997803 124.763999939 15)
(130.011993408 124.646003723 15)
(159.276000977 175.850006104 15)
(159.268005371 175.848007202 15)
(129.998001099 125 15)
(130 124.882003784 15)
(130.091995239 124.043998718 15)
(130.207992554 123.569999695 15)
(130.022003174 124.526000977 15)
(130.050003052 124.286003113 15)
(130.350006104 123.157997131 15)
(165.772003174 76.3003005981 15)
(165.820007324 76.3622970581 15)
(139.998001099 125 15)
(139.908004761 125.95400238 15)
(139.62399292 126.898002625 15)
(132.210006714 129.147994995 15)
(131.464004517 128.533996582 15)
(133.100006104 129.62399292 15)
(133.158004761 129.647994995 15)
(159.238006592 175.843994141 15)
(159.194000244 175.835998535 15)
(89.4339981079 125.88999939 15)
(89.3840026855 126.194000244 15)
(89.4560012817 125.737998962 15)
(89.4720001221 125.587997437 15)
(89.4779968262 125.513999939 15)
(89.4840011597 125.440002441 15)
(89.4879989624 125.363998413 15)
(89.4919967651 125.290000916 15)
(89.4960021973 125.218002319 15)
(89.4980010986 125.143997192 15)
(89.4960021973 124.791999817 15)
(89.2399978638 126.783996582 15)
(89.0599975586 127.300003052 15)
(78.8759994507 120.531997681 15)
(79.8700027466 119.741996765 15)
(78.8300018311 120.580001831 15)
(77.4680023193 122.624000549 15)
(85.5500030518 119.18800354 15)
(85.6240005493 119.216003418 15)
(80.9479980469 130.809997559 15)
(80.8740005493 130.779998779 15)
(79.7620010376 130.186004639 15)
(78.8300018311 129.417999268 15)
(77.4260025024 127.269996643 15)
(77.0999984741 126.122001648 15)
(166.429992676 172.677993774 15)
(165.779998779 173.679992676 15)
(78.06199646 121.512001038 15)
(85.5220031738 130.822006226 15)
(84.3720016479 131.147994995 15)
(83.2480010986 131.248001099 15)
(87.7139968872 120.625999451 15)
(88.5059967041 121.617996216 15)
(87.6679992676 120.580001831 15)
(156.11000061 173.861999512 15)
(155.462005615 172.940002441 15)
(86.736000061 119.81199646 15)
(80.9479980469 119.18800354 15)
(80.9779968262 119.176002502 15)
(133.158004761 120.349998474 15)
(133.182006836 120.339996338 15)
(166.488006592 77.4343032837 15)
(166.910003662 78.5643005371 15)
(156.332000732 84.4763031006 15)
(164.755996704 85.0802993774 15)
(164.694000244 85.1283035278 15)
(163.621994019 85.7963027954 15)
(166.927993774 78.6283035278 15)
(159.320007324 74.1283035278 15)
(154.839996338 168.218002319 15)
(154.843994141 168.195999146 15)
(154.837997437 81.8003005981 15)
(154.820007324 81.7362976074 15)
(154.630004883 80.4803009033 15)
(154.692001343 79.2683029175 15)
(155.927993774 84.0002975464 15)
(167.050003052 168.904006958 15)
(167.050003052 168.906005859 15)
(158.841995239 163.906005859 15)
(159.893997192 163.656005859 15)
(154.692001343 170.703994751 15)
(154.679992676 170.649993896 15)
(82.0540008545 131.134002686 15)
(167.052001953 81.1262969971 15)
(166.759994507 82.2843017578 15)
(166.285995483 83.3082962036 15)
(154.964004517 171.850006104 15)
(167.11000061 170.242004395 15)
(166.914001465 171.382003784 15)
(167.055999756 168.927993774 15)
(167.067993164 168.981994629 15)
(161.17199707 86.4263000488 15)
(159.960006714 86.3643035889 15)
(89.0319976807 127.374000549 15)
(167.117996216 79.8843002319 15)
(167.055999756 81.0962982178 15)
(160.576004028 73.9402999878 15)
(161.787994385 74.0002975464 15)
(159.929992676 86.3602981567 15)
(159.335998535 86.2403030396 15)
(89.0599975586 122.697998047 15)
(77.9919967651 128.378005981 15)
(77.43800354 127.300003052 15)
(78.783996582 129.371994019 15)
(86.6299972534 130.255996704 15)
(85.5500030518 130.809997559 15)
(87.6220016479 129.464004517 15)
(87.6679992676 129.417999268 15)
(88.4359970093 128.485992432 15)
(89.0719985962 122.725997925 15)
(89.4919967651 124.723999023 15)
(89.486000061 124.583999634 15)
(89.4899978638 124.653999329 15)
(89.263999939 123.300003052 15)
(89.3960037231 123.875999451 15)
(89.4800033569 124.513999939 15)
(89.4739990234 124.444000244 15)
(89.4599990845 124.304000854 15)
(89.4440002441 124.162002563 15)
(131.427993774 128.496002197 15)
(130.794006348 127.702003479 15)
(130.350006104 126.837997437 15)
(137.5 120.667999268 15)
(137.682006836 120.779998779 15)
(130.37399292 123.099998474 15)
(130.850006104 122.209999084 15)
(137.996002197 120.996002197 15)
(138.195999146 121.153999329 15)
(137.893997192 120.92199707 15)
(137.789993286 120.849998474 15)
(138.567993164 121.498001099 15)
(131.464004517 121.461997986 15)
(131.5 121.426002502 15)
(139.399993896 122.678001404 15)
(139.432006836 122.741996765 15)
(139.916000366 124.099998474 15)
(139.205993652 122.29599762 15)
(139.29800415 122.475997925 15)
(132.294006348 120.793998718 15)
(154.843994141 168.194000244 15)
(154.845993042 168.179992676 15)
(155.259994507 82.9302978516 15)
(157.867996216 85.6623001099 15)
(157.807998657 85.6283035278 15)
(157.927993774 85.6942977905 15)
(157.990005493 85.7263031006 15)
(158.052001953 85.7583007812 15)
(158.369995117 85.9103012085 15)
(158.242004395 85.8503036499 15)
(158.113998413 85.7902984619 15)
(158.177993774 85.8202972412 15)
(154.697998047 170.723999023 15)
(82.1259994507 118.849998474 15)
(83.2480010986 118.748001099 15)
(154.695999146 79.2382965088 15)
(154.988006592 78.0802993774 15)
(161.817993164 74.0043029785 15)
(162.975997925 74.2963027954 15)
(164 74.7683029175 15)
(159.985992432 163.634002686 15)
(160.039993286 163.621994019 15)
(84.4420013428 118.863998413 15)
(165.589996338 84.2843017578 15)
(165.638000488 165.768005371 15)
(166.285995483 166.692001343 15)
(164.975997925 75.4663009644 15)
(165.764007568 173.703994751 15)
(165.751998901 173.722000122 15)
(130.339996338 126.816001892 15)
(135 129.998001099 15)
(134.044006348 129.908004761 15)
(134.100006104 120.080001831 15)
(135 119.998001099 15)
(135.895996094 129.917999268 15)
(158.501998901 85.964302063 15)
(158.772003174 86.0682983398 15)
(139.656005859 123.180000305 15)
(154.854003906 168.136001587 15)
(139.350006104 122.580001831 15)
(139.36000061 122.599998474 15)
(139.345993042 127.417999268 15)
(139.272003174 127.554000854 15)
(159.264007568 175.848007202 15)
(155.994003296 165.910003662 15)
(165.76600647 173.70199585 15)
(164.753997803 164.919998169 15)
(164.761993408 164.925994873 15)
(164.781997681 164.93800354 15)
(158.009994507 175.369995117 15)
(157.014007568 174.725997925 15)
(154.714004517 170.794006348 15)
(159.955993652 163.63999939 15)
(167.052001953 168.916000366 15)
(156.985992432 174.705993652 15)
(156.772003174 84.8983001709 15)
(157.742004395 85.5903015137 15)
(159.93800354 163.643997192 15)
(154.833999634 168.251998901 15)
(162.509994507 163.787994385 15)
(162.554000854 163.796005249 15)
(164.73399353 164.906005859 15)
(164.751998901 164.917999268 15)
(155.966003418 165.95199585 15)
(155.975997925 165.93800354 15)
(139.401992798 127.31199646 15)
(139.147994995 127.788002014 15)
(138.567993164 128.5 15)
(161.757995605 175.998001099 15)
(161.707992554 176.007995605 15)
(164.919998169 174.57800293 15)
(164 175.227996826 15)
(166.901992798 171.449996948 15)
(166.893997192 171.496002197 15)
(154.63999939 169.388000488 15)
(154.697998047 170.725997925 15)
(155.317993164 166.95199585 15)
(161.300003052 163.580001831 15)
(162.436004639 163.776000977 15)
(155.979995728 165.932006836 15)
(163.738006592 164.259994507 15)
(166.783996582 167.781997681 15)
(167.031997681 168.832000732 15)
(129.998001099 125.101997375 14.984000206)
(166.904006958 171.436004639 15)
(160.447998047 176.052001953 15)
(159.309997559 175.856002808 15)
(162.906005859 175.723999023 15)
(139.358001709 127.393997192 15)
(162.479995728 163.781997681 15)
(162.48399353 163.783996582 15)
(162.488006592 163.783996582 15)
(156.82800293 165.052001953 15)
(156.966003418 174.694000244 15)
(165.774002075 173.692001343 15)
(137.882003784 129.083999634 14.5439996719)
(137.880004883 129.085998535 14.517999649)
(137.87600708 129.087997437 14.4619998932)
(137.425994873 129.369995117 14.9919996262)
(137.386001587 129.382003784 14.8199996948)
(137.643997192 129.244003296 14.9659996033)
(137.38999939 129.382003784 14.8620004654)
(137.524002075 129.315994263 14.998000145)
(137.473999023 120.653999329 14.998000145)
(137.464004517 120.648002625 15)
(137.447998047 120.63999939 14.9960002899)
(137.425994873 120.625999451 14.9919996262)
(137.093994141 120.458000183 14.5439996719)
(137.102005005 120.461997986 14.4580001831)
(130 124.944000244 14.982000351)
(130.007995605 125.309997559 14.8760004044)
(130.009994507 125.319999695 14.8660001755)
(157.67199707 164.447998047 14.9899997711)
(157.81199646 164.367996216 14.9919996262)
(166.285995483 166.692001343 -20)
(166.783996582 167.781997681 -20)
(167.055999756 168.901992798 -20)
(167.067993164 168.981994629 -20)
(167.11000061 170.242004395 -20)
(166.910003662 171.432006836 -20)
(166.893997192 171.496002197 -20)
(166.429992676 172.677993774 -20)
(165.772003174 173.697998047 -20)
(165.751998901 173.722000122 -20)
(164.919998169 174.57800293 -20)
(164 175.227996826 -20)
(162.906005859 175.723999023 -20)
(161.787994385 176 -20)
(161.707992554 176.007995605 -20)
(160.447998047 176.052001953 -20)
(159.255996704 175.852005005 -20)
(159.194000244 175.835998535 -20)
(158.009994507 175.369995117 -20)
(156.992004395 174.714004517 -20)
(156.966003418 174.694000244 -20)
(156.11000061 173.861999512 -20)
(155.462005615 172.940002441 -20)
(135.184005737 137.817993164 -13)
(150.063995361 138.593994141 -13)
(154.119995117 145.617996216 -13)
(154.251998901 145.843994141 -13)
(159.722000122 94.6782989502 -13)
(154.251998901 104.152000427 -13)
(158.175994873 152.641998291 -13)
(139.240005493 144.843994141 -13)
(147.350006104 158.891998291 -13)
(143.425994873 152.093994141 -13)
(143.425994873 97.904296875 -13)
(148.895996094 88.4282989502 -13)
(142.330001831 99.8003005981 -13)
(162.231994629 159.666000366 -13)
(166.285995483 166.692001343 -13)
(146.007995605 131.570007324 -13)
(143.294006348 151.867996216 -13)
(163.003997803 88.9943008423 -13)
(155.462005615 172.940002441 -13)
(151.406005859 165.916000366 -13)
(119.353996277 131.248001099 -13)
(152.177993774 82.7423019409 -13)
(155.462005615 77.0562973022 -13)
(166.285995483 83.3082962036 -13)
(153.156005859 106.050003052 -13)
(89.2679977417 131.248001099 -13)
(83.2480010986 131.248001099 -13)
(95.283996582 118.748001099 -13)
(107.319999695 118.748001099 -13)
(83.2480010986 118.748001099 -13)
(89.2679977417 118.748001099 -13)
(119.353996277 118.748001099 -13)
(107.319999695 131.248001099 -13)
(95.283996582 131.248001099 -13)
(166.113998413 173.222000122 11.5)
(155.634002686 166.410003662 11.5)
(138.498001099 128.572006226 15)
(137.912002563 129.06199646 15)
(130.186004639 126.356002808 15)
(130.080001831 125.896003723 15)
(130.029998779 125.554000854 15)
(130.044006348 125.667999268 15)
(135.953994751 120.092002869 15)
(136.427993774 120.206001282 15)
(136.899993896 120.374000549 15)
(136.664001465 120.283996582 15)
(137.014007568 120.42199707 15)
(130.009994507 125.330001831 15)
(130.018005371 125.442001343 15)
(130 125.108001709 15)
(130.007995605 124.68800354 14.8760004044)
(130.009994507 124.678001404 14.8660001755)
(137.240005493 120.527999878 15)
(137.764007568 120.832000732 14.8760004044)
(137.772003174 120.837997437 14.8660001755)
(77.43800354 127.300003052 -20)
(77.9919967651 128.378005981 -20)
(78.8300018311 129.417999268 -20)
(79.7620010376 130.186004639 -20)
(78.783996582 129.371994019 -20)
(80.8740005493 130.779998779 -20)
(80.9479980469 130.809997559 -20)
(78.8300018311 120.580001831 -20)
(78.06199646 121.512001038 -20)
(77.4680023193 122.624000549 -20)
(77.43800354 122.697998047 -20)
(159.255996704 74.1443023682 -20)
(158.12600708 74.5702972412 -20)
(78.8759994507 120.531997681 -20)
(79.8700027466 119.741996765 -20)
(157.054000854 75.2342987061 -20)
(156.992004395 75.2843017578 -20)
(166.910003662 78.5643005371 -20)
(166.488006592 77.4343032837 -20)
(165.820007324 76.3622970581 -20)
(165.772003174 76.3003005981 -20)
(166.927993774 78.6283035278 -20)
(167.117996216 79.8843002319 -20)
(167.055999756 81.0962982178 -20)
(159.320007324 74.1283035278 -20)
(160.576004028 73.9402999878 -20)
(161.787994385 74.0002975464 -20)
(80.9479980469 119.18800354 -20)
(77.4260025024 127.269996643 -20)
(107.319999695 118.748001099 -20)
(83.2480010986 118.748001099 -20)
(164.975997925 75.4663009644 -20)
(164 74.7683029175 -20)
(166.759994507 82.2843017578 -20)
(167.052001953 81.1262969971 -20)
(166.285995483 83.3082962036 -20)
(77.0999984741 126.122001648 -20)
(77 125 -20)
(82.1259994507 118.849998474 -20)
(80.9779968262 119.176002502 -20)
(156.158004761 76.0802993774 -20)
(155.462005615 77.0562973022 -20)
(162.975997925 74.2963027954 -20)
(161.817993164 74.0043029785 -20)
(77.1139984131 123.804000854 -20)
(143.425994873 97.904296875 -20)
(82.0540008545 131.134002686 -20)
(83.2480010986 131.248001099 -20)
(142.330001831 99.8003005981 -20)
(134.169998169 136.063995361 -20)
(152.091995239 142.106002808 -20)
(119.353996277 118.748001099 -20)
(141.268005371 148.356002808 -20)
(143.425994873 152.093994141 -20)
(154.251998901 145.843994141 -20)
(153.156005859 106.050003052 -20)
(154.251998901 104.152000427 -20)
(119.353996277 131.248001099 -20)
(107.319999695 131.248001099 -20)
(89.4960021973 125.17199707 14.9639997482)
(157.600006104 85.5063018799 14.9639997482)
(137.345993042 120.583999634 14.9639997482)
(137.850006104 129.108001709 14.732000351)
(157.628005981 85.5223007202 14.9779996872)
(157.744003296 85.5903015137 15)
(137.475997925 129.341995239 14.9960002899)
(137.621994019 129.251998901 14.9759998322)
(137.098007202 120.461997986 14.515999794)
(130 125.07800293 14.9899997711)
(139.647994995 123.157997131 -13)
(138.533996582 121.461997986 -13)
(139.647994995 126.837997437 -13)
(139.998001099 125 -13)
(162.492004395 86.2182998657 -13)
(164.755996704 85.0802993774 -13)
(135 119.998001099 -13)
(133.158004761 120.349998474 -13)
(154.837997437 81.8003005981 -13)
(155.259994507 82.9302978516 -13)
(88.4359970093 128.485992432 -13)
(89.0599975586 127.300003052 -13)
(87.6679992676 129.417999268 -13)
(136.839996338 129.647994995 -13)
(138.533996582 128.533996582 -13)
(161.300003052 163.580001831 -13)
(159.960006714 163.632003784 -13)
(162.492004395 163.777999878 -13)
(164.755996704 164.917999268 -13)
(158.841995239 163.906005859 -13)
(157.748001099 164.404006958 -13)
(155.975997925 165.934005737 -13)
(154.837997437 168.197998047 -13)
(133.158004761 129.647994995 -13)
(135 129.998001099 -13)
(154.692001343 170.727996826 -13)
(131.464004517 121.461997986 -13)
(136.839996338 120.349998474 -13)
(131.464004517 128.533996582 -13)
(129.998001099 125 -13)
(130.350006104 126.837997437 -13)
(130.350006104 123.157997131 -13)
(155.975997925 84.0643005371 -13)
(156.772003174 84.8983001709 -13)
(157.748001099 85.5942993164 -13)
(154.692001343 79.2683029175 -13)
(159.960006714 86.3643035889 -13)
(89.3840026855 126.194000244 -13)
(89.5 125 -13)
(85.5500030518 130.809997559 -13)
(85.5500030518 119.18800354 -13)
(89.0599975586 122.697998047 -13)
(87.6679992676 120.580001831 -13)
(137.854003906 129.102005005 14.718000412)
(137.382003784 120.603996277 14.986000061)
(137.621994019 129.255996704 14.9739999771)
(130 125.087997437 14.986000061)
(137.5 127.498001099 15)
)

// edges

628
(
(73 74)
(75 76)
(77 73)
(78 79)
(79 80)
(81 82)
(20 19)
(83 84)
(84 85)
(86 87)
(87 88)
(89 90)
(91 92)
(93 91)
(94 93)
(95 94)
(96 95)
(97 96)
(98 97)
(19 98)
(99 100)
(0 99)
(101 102)
(102 103)
(100 104)
(104 101)
(103 105)
(106 107)
(108 109)
(110 111)
(111 106)
(112 113)
(114 115)
(107 114)
(115 112)
(113 116)
(85 86)
(117 118)
(119 120)
(120 121)
(122 123)
(124 122)
(125 124)
(126 127)
(128 129)
(130 128)
(131 130)
(132 131)
(133 132)
(134 133)
(135 134)
(136 135)
(137 136)
(77 137)
(138 74)
(139 140)
(129 139)
(141 142)
(143 141)
(80 144)
(145 146)
(147 148)
(148 149)
(149 150)
(151 152)
(152 78)
(153 154)
(144 155)
(155 143)
(156 157)
(157 158)
(159 160)
(161 159)
(162 163)
(146 164)
(164 161)
(165 166)
(167 168)
(118 169)
(169 170)
(171 1)
(172 173)
(173 174)
(174 89)
(170 175)
(88 176)
(177 178)
(179 180)
(180 181)
(181 182)
(1 183)
(184 185)
(186 187)
(188 189)
(158 190)
(190 147)
(191 192)
(192 193)
(163 194)
(195 196)
(197 198)
(90 199)
(199 200)
(140 201)
(175 202)
(202 203)
(176 204)
(204 205)
(206 207)
(160 208)
(142 165)
(209 210)
(210 151)
(211 209)
(150 211)
(212 213)
(214 212)
(215 214)
(201 216)
(216 215)
(208 217)
(218 138)
(219 220)
(221 222)
(220 218)
(223 219)
(224 223)
(225 224)
(226 225)
(222 226)
(217 221)
(24 3)
(227 228)
(228 229)
(123 227)
(230 231)
(232 233)
(116 232)
(234 235)
(236 234)
(231 237)
(237 236)
(235 238)
(239 240)
(241 242)
(243 119)
(238 244)
(244 245)
(240 246)
(246 167)
(233 239)
(247 248)
(183 249)
(249 179)
(250 251)
(252 250)
(253 252)
(254 253)
(255 256)
(257 254)
(258 257)
(256 258)
(259 188)
(166 260)
(260 261)
(262 263)
(263 83)
(264 265)
(265 266)
(267 268)
(261 269)
(269 145)
(193 270)
(270 172)
(203 191)
(271 272)
(266 273)
(273 117)
(274 275)
(229 276)
(213 156)
(277 278)
(278 125)
(168 279)
(279 280)
(281 277)
(105 281)
(200 206)
(282 255)
(283 282)
(242 284)
(284 243)
(207 283)
(248 285)
(205 264)
(92 4)
(182 262)
(286 287)
(288 289)
(245 286)
(109 290)
(6 291)
(7 2)
(292 274)
(198 195)
(293 294)
(294 295)
(9 186)
(296 297)
(194 298)
(299 267)
(185 300)
(3 301)
(4 302)
(303 5)
(187 304)
(305 177)
(297 8)
(306 307)
(290 126)
(127 296)
(308 309)
(310 311)
(121 312)
(289 313)
(313 314)
(302 171)
(251 7)
(315 316)
(317 318)
(319 320)
(304 299)
(321 305)
(322 259)
(309 293)
(285 323)
(298 322)
(28 6)
(324 325)
(326 28)
(327 308)
(328 329)
(330 29)
(331 319)
(272 328)
(320 153)
(275 317)
(332 333)
(334 81)
(318 334)
(333 108)
(316 332)
(312 335)
(335 288)
(336 337)
(337 338)
(178 247)
(311 326)
(291 339)
(325 336)
(189 321)
(340 162)
(300 197)
(154 341)
(338 306)
(287 241)
(10 292)
(32 10)
(82 315)
(329 184)
(307 327)
(8 24)
(301 340)
(268 324)
(339 9)
(323 310)
(295 271)
(341 32)
(196 331)
(342 343)
(344 343)
(345 0)
(346 347)
(40 39)
(26 40)
(348 41)
(42 30)
(35 11)
(11 43)
(45 35)
(46 11)
(37 23)
(23 47)
(48 22)
(349 45)
(0 349)
(230 350)
(350 351)
(352 353)
(353 49)
(354 355)
(110 26)
(26 356)
(25 52)
(33 25)
(54 347)
(357 358)
(9 359)
(360 9)
(361 362)
(363 364)
(364 365)
(22 38)
(366 367)
(367 368)
(369 370)
(370 371)
(371 372)
(372 373)
(374 375)
(375 376)
(377 378)
(378 379)
(380 381)
(381 382)
(382 383)
(384 59)
(385 386)
(386 387)
(388 389)
(387 390)
(391 384)
(392 393)
(394 395)
(60 396)
(396 394)
(397 398)
(390 397)
(58 399)
(393 400)
(401 388)
(402 403)
(399 385)
(59 404)
(403 392)
(400 391)
(395 405)
(405 406)
(407 401)
(408 58)
(389 408)
(409 410)
(411 412)
(413 414)
(412 415)
(415 60)
(414 411)
(404 416)
(416 417)
(417 409)
(26 31)
(418 10)
(3 57)
(8 57)
(419 6)
(61 420)
(421 61)
(422 276)
(423 422)
(424 425)
(425 423)
(426 280)
(427 426)
(428 429)
(429 427)
(430 428)
(22 37)
(37 38)
(21 48)
(27 47)
(62 421)
(54 62)
(38 54)
(431 432)
(433 63)
(63 431)
(432 424)
(56 55)
(434 435)
(64 430)
(436 64)
(65 436)
(437 438)
(366 365)
(439 440)
(377 376)
(441 442)
(443 441)
(440 443)
(444 445)
(442 444)
(446 447)
(448 449)
(447 448)
(450 451)
(452 446)
(453 452)
(454 455)
(451 454)
(456 457)
(458 459)
(457 458)
(460 456)
(461 460)
(462 461)
(363 362)
(463 450)
(464 463)
(465 464)
(466 453)
(467 439)
(468 469)
(380 379)
(470 471)
(459 470)
(369 368)
(472 473)
(474 472)
(475 467)
(476 475)
(477 478)
(469 477)
(479 480)
(455 479)
(374 373)
(481 482)
(471 481)
(483 476)
(449 483)
(480 484)
(485 486)
(445 485)
(478 466)
(487 68)
(473 462)
(482 465)
(67 488)
(489 69)
(68 490)
(491 492)
(361 493)
(493 489)
(494 495)
(496 67)
(484 487)
(492 383)
(488 491)
(69 494)
(495 474)
(490 468)
(486 497)
(497 496)
(75 498)
(499 19)
(38 36)
(27 45)
(12 70)
(500 12)
(66 70)
(70 65)
(351 352)
(501 62)
(36 54)
(26 71)
(420 314)
(30 44)
(46 43)
(56 25)
(26 50)
(50 31)
(5 34)
(303 34)
(2 34)
(7 34)
(29 53)
(70 64)
(12 49)
(72 25)
(1 503)
(1 2)
(4 20)
(4 5)
(31 433)
(39 50)
(26 507)
(71 51)
(502 19)
(23 21)
(22 23)
(26 330)
(25 26)
(21 27)
(27 22)
(29 25)
(30 22)
(342 344)
(345 504)
(39 26)
(41 13)
(22 41)
(348 22)
(30 505)
(43 35)
(43 44)
(44 14)
(35 46)
(42 14)
(44 42)
(45 46)
(47 37)
(22 505)
(355 506)
(356 39)
(50 40)
(29 51)
(507 51)
(33 53)
(52 33)
(53 56)
(508 509)
(510 511)
(512 513)
(514 515)
(516 517)
(518 519)
(520 518)
(521 522)
(523 524)
(525 523)
(526 525)
(398 526)
(527 528)
(524 527)
(528 529)
(529 530)
(531 532)
(533 402)
(530 533)
(515 534)
(509 535)
(535 514)
(532 521)
(522 510)
(511 508)
(536 531)
(537 538)
(539 537)
(538 536)
(534 539)
(517 540)
(540 541)
(541 542)
(543 516)
(406 543)
(544 512)
(513 407)
(542 544)
(545 546)
(519 545)
(547 520)
(410 547)
(548 413)
(549 550)
(550 548)
(546 549)
(418 32)
(24 57)
(419 28)
(38 47)
(48 27)
(47 22)
(48 41)
(551 62)
(54 47)
(358 63)
(56 15)
(15 55)
(66 65)
(552 66)
(59 67)
(68 60)
(498 76)
(502 499)
(69 58)
(70 500)
(13 46)
(16 17)
(17 13)
(16 46)
(26 72)
(25 18)
(26 56)
(56 72)
(16 553)
(23 48)
(48 37)
(51 26)
(26 554)
(25 15)
(14 27)
(13 553)
(52 56)
(20 34)
(503 34)
(29 31)
(30 14)
(53 55)
(55 29)
(555 36)
(61 36)
(66 64)
(49 70)
(49 552)
(65 49)
(17 46)
(71 25)
(72 18)
(18 56)
)

// concaveStart mixedStart nonFeatureStart
13 19 73
// internalStart flatStart openStart multipleStart
496 628 628 628
// normals

1018
(
(1 0 0)
(0 0 1)
(1 -0 0)
(-0.964124014029 0.0535283940826 0.259999224228)
(0.891685415405 -0.0254628423799 -0.451938893671)
(0 0 1)
(0 0 1)
(-0.99548810608 -0.094886409213 -0)
(-0.959667906252 -0.281136105312 -0)
(0 0 1)
(0.224726804457 0.974387976575 0.00812000401029)
(0 0 1)
(-0.484318100357 0.864410839973 0.135018063247)
(0 0 1)
(-0.814183901381 -0.580607074304 -0)
(-0.690433564599 -0.723395806509 -0)
(0 0 1)
(-0.526571635417 -0.850130762162 0)
(-0.35275547252 -0.93571554257 -0)
(0 0 1)
(0.270644644802 0.962572517969 -0.0143395917318)
(0 0 1)
(-0.6 0.8 0)
(-0.560868419954 0.827904955595 0)
(0 0 1)
(-0.560773796421 0.827969013135 0.000250070455582)
(0 0 1)
(-0.560865124149 0.827900090615 0.00342818801131)
(0 0 1)
(-0.542151047923 0.8402669112 0.00487433878456)
(0 0 1)
(-0.542151047923 0.8402669112 0.00487433878456)
(0 0 1)
(-0.522531411977 0.852457388822 0.016653039978)
(0 0 1)
(-0.522363015569 0.852563572398 0.0164995450152)
(0 0 1)
(0.466220183908 0.88423607098 0.0276642530045)
(0.475799857487 0.879542164303 -0.00448071746324)
(0 0 1)
(0.384048760312 0.923312812487 0)
(0.318699359323 0.947855853159 0)
(0 0 1)
(0.447173794748 0.894347589495 0.0133411564212)
(0.415022639309 0.909810486583 0.00104276756975)
(0 0 1)
(0.263106081856 0.964766909512 0)
(0 0 1)
(-0.99771126999 -0.0676064535723 -0.00126062322242)
(-0 0 1)
(-0.242535232284 0.970140929136 0.00179964322923)
(0 0 1)
(-0.997570130905 -0.0168992224426 -0.0675888319697)
(0 0 1)
(-0.999426176245 -0.0338591398689 -0.000936420621027)
(0 0 1)
(-0.971337105982 -0.237706176915 -0)
(0 0 1)
(-0.993263054552 -0.115881215952 -0.000219660619987)
(-0.996522074149 -0.0831227008254 0.00586279302409)
(0 0 1)
(-0.985277339525 -0.170963634198 -0)
(0 0 1)
(-0.945412788572 -0.325875220297 -0)
(0 0 1)
(-0.627738350646 -0.778303606553 -0.0137134662301)
(0 0 1)
(0.790567340786 -0.612140008396 -0.0169673157346)
(0 0 1)
(0.995579881978 0.0939185743129 -0)
(0.957599346438 0.288103265691 -0)
(0 0 1)
(-0.63548746262 0.772111186846 0)
(0 0 1)
(-0.471615070876 0.881804527615 0)
(-0.382313388493 0.923822752487 -0.0196975878459)
(0 0 1)
(-0.17876535022 0.983891736707 0)
(0 0 1)
(0.986745033424 0.162278276465 -0)
(0.989684498147 0.143264071307 -0)
(0 0 1)
(0.994360125075 0.10605631363 -0)
(0.996732403201 0.0807744787005 -0)
(0 0 1)
(0.9967223513 0.0808764295776 -0.00188614906614)
(0 0 1)
(0.998615056102 0.0525270316601 0.00298004546236)
(0 0 1)
(0.998539807411 0.0539472996271 -0.00281813392212)
(0 0 1)
(0.998453099703 0.0555460291771 -0.00245893005561)
(0 0 1)
(0.999040896032 0.0269844035835 -0.0344837645731)
(0 0 1)
(0.992192850053 0.0137731549599 -0.123950185583)
(0 0 1)
(0.999270982687 -0.0285350405955 -0.0253624647556)
(0 0 1)
(0.944201292084 0.329368972472 0)
(0 0 1)
(0.971481178008 0.237116681774 -0)
(0 0 1)
(-0.622193799937 -0.782863254547 0)
(-0.721975929932 -0.691797978634 -0.012896253598)
(0 0 1)
(-0.926614564382 -0.375651971043 -0.0164634664417)
(0 0 1)
(0.353872559836 -0.935207072982 -0.0127256449502)
(0 0 1)
(-0.375651971043 0.926614564382 -0.0164634664417)
(0 0 1)
(-0.471161058162 0.882047196737 0)
(-0.635942389772 0.77173653334 0)
(0 0 1)
(-0.961964189279 0.273175581896 0)
(-0.996051866385 0.0887731911678 0)
(0 0 1)
(0.838909868634 0.544198495196 0.0088447801043)
(0 0 1)
(-0.882047196737 -0.471161058162 -0)
(-0.77173653334 -0.635942389772 -0)
(0 0 1)
(0.272722610225 0.962092707525 0)
(0.0886232673627 0.996065216982 0)
(0 0 1)
(0.78148236653 -0.623927328143 0)
(0.707009776079 -0.707009776079 -0.0165636064113)
(0 0 1)
(-0.818126412175 0.574992955545 0.00723012972651)
(0 0 1)
(0.472393241611 -0.881387897172 0)
(0.635942389772 -0.77173653334 0)
(0 0 1)
(-0.371382176383 -0.92833739195 -0.0162777692845)
(0 0 1)
(-0.384610895119 -0.922948799424 -0.0154910618714)
(0 0 1)
(0.848710824524 -0.528857198434 0)
(0.936805807847 -0.349849794031 0)
(0 0 1)
(-0.756657264561 0.65381173436 0)
(0 0 1)
(0.612140017345 0.790567352344 -0.0169664543326)
(0 0 1)
(0.528857198434 0.848710824524 0)
(0.349851867014 0.93680503369 0)
(0 0 1)
(0.962593822994 -0.270568152893 -0.0143529290818)
(0 0 1)
(-0.242433224744 -0.969964118076 -0.0198932446943)
(0 0 1)
(-0.983891705823 -0.178765344609 0.000250559674862)
(0 0 1)