/*--------------------------------*- C++ -*----------------------------------*\
| =========                 |                                                 |
| \\      /  F ield         | OpenFOAM: The Open Source CFD Toolbox           |
|  \\    /   O peration     | Version:  v2212                                 |
|   \\  /    A nd           | Website:  www.openfoam.com                      |
|    \\/     M anipulation  |                                                 |
\*---------------------------------------------------------------------------*/
FoamFile
{
    version     2.0;
    format      ascii;
    class       dictionary;
    object      snappyHexMeshDict;
}
// * * * * * * * * * * * * * * * * * * * * * * * * * * * * * * * * * * * * * //
castellatedMesh true;
snap            true;
addLayers       true;

geometry
{
    UMaineVolturn_squareSupport.stl
    {
        type    triSurfaceMesh;
        name    floatingObject ;
        
    }
    
    
    

};

castellatedMeshControls
{
    maxLocalCells   200000000;
    maxGlobalCells  300000000;
    minRefinementCells 20;
    nCellsBetweenLevels 3;
    maxLoadUnbalance 0.1;
    allowFreeStandingZoneFaces true;
    resolveFeatureAngle     30;
    features
    (

      {
            file "UMaineVolturn_squareSupport.eMesh" ;
            level 2 ;
        }    
 	
    );

    refinementSurfaces
    {
        
        floatingObject
        {
            level (2 2);
            
        }
    }

    refinementRegions
    {
	
        floatingObject
	{
		mode distance;
		levels ((1.0 2) ); //(level 1) (level 2) (level 3)
	}   
	
	}
    locationInMesh ( 180.93 60.88143855 23.86520574 ) ;
}

snapControls
{
    tolerance       1;
    implicitFeatureSnap false;
    explicitFeatureSnap true;
    multiRegionFeatureSnap true;
    detectNearSurfacesSnap true;
    nSmoothPatch    5;
    nSolveIter      50;
    nRelaxIter      5;
    nFeatureSnapIter 10;
    nSmoothInternal 3;
    nFaceSplitInterval 5;
}

addLayersControls
{
    layers
    {
        floatingObject
        {
            nSurfaceLayers 4;
        }
    }
    relativeSizes    true ;
    expansionRatio    1.05 ;
    finalLayerThickness   0.2 ;
    featureAngle    180;
    slipFeatureAngle 30;
    nGrow           0;
    nBufferCellsNoExtrude 0;
    minMedialAxisAngle 90;
    maxFaceThicknessRatio 0.2;
    maxThicknessToMedialRatio 0.3;
    minThickness    0.1;
    nLayerIter      150;
    nRelaxIter      14;
    nSmoothSurfaceNormals 10;
    nSmoothNormals  5;
    nSmoothThickness 10;
    nRelaxedIter    10;
    nMedialAxisIter 10;
}

meshQualityControls
{
    minVol          1e-20;
    minTetQuality   1e-20;
    minArea         1e-20;
    minTwist        0.05;
    minDeterminant  1e-06;
    minFaceWeight   0.02;
    minVolRatio     0.01;
    minTriangleTwist -1;
    minFlatness     0.5;
    maxNonOrtho     70;
    maxBoundarySkewness 5;
    maxInternalSkewness 4;
    maxConcave      80;
    nSmoothScale    4;
    errorReduction  0.75;

    relaxed
    {
        minVol          1e-30;
        minTetQuality   1e-30;
        minArea         1e-30;
        minTwist        0.001;
        minDeterminant  1e-06;
        minFaceWeight   1e-06;
        minVolRatio     0.01;
        minTriangleTwist -1;
        minFlatness     0.5;
        maxNonOrtho     75;
        maxBoundarySkewness 10;
        maxInternalSkewness 8;
        maxConcave      80;
        nSmoothScale    4;
        errorReduction  0.75;
    }
}

mergeTolerance  1e-06;

debug           0;


// ************************************************************************* //
