/*--------------------------------*- C++ -*----------------------------------*\
| =========                 |                                                 |
| \\      /  F ield         | OpenFOAM: The Open Source CFD Toolbox           |
|  \\    /   O peration     | Version:  v2012                                 |
|   \\  /    A nd           | Website:  www.openfoam.com                      |
|    \\/     M anipulation  |                                                 |
\*---------------------------------------------------------------------------*/
FoamFile
{
    version     2.0;
    format      ascii;
    class       dictionary;
    object      controlDict;
}
// * * * * * * * * * * * * * * * * * * * * * * * * * * * * * * * * * * * * * //
#include "../myVars" //Include global variables
libs            (overset fvMotionSolvers);

application     overInterDyMFoam;

startFrom       latestTime;

startTime       0;

stopAt          endTime;

endTime         600.0;

deltaT          0.002;

writeControl    adjustable;

writeInterval   300;

purgeWrite      1;

writeFormat     binary;

writePrecision  12;

writeCompression off;

timeFormat      general;

timePrecision   6;

runTimeModifiable yes;

adjustTimeStep  yes;

maxCo           5;

maxAlphaCo      2;

maxDeltaT       $modelTimestep;


functions
{
    #includeIfPresent "../waveGaugesNProbes/waterlineWhole_controlDict";
    #includeIfPresent "../waveGaugesNProbes/wavegauge_controlDict";
    yPlus
    {
    // Mandatory entries (unmodifiable)
    type            yPlus;
    libs            (fieldFunctionObjects);

    // Optional (inherited) entries
    writePrecision  8;
    enabled         true;
    log             true;
    timeStart       0;
    timeEnd         1000;
    executeControl  timeStep;
    executeInterval 1;
    writeControl    timeStep;
    writeInterval   10000;
    }
    forces
    {
        type            forces;
        libs            (forces);
        patches         (floatingObject);
        rhoInf          1000;
        log             on;
        executeControl  timeStep;
        executeInterval 5;
        writeControl    timeStep;
        writeInterval   5;
        CofR            (0 0 0);
    }
}

// ************************************************************************* //
