/*--------------------------------*- C++ -*----------------------------------*\
| =========                 |                                                 |
| \\      /  F ield         | OpenFOAM: The Open Source CFD Toolbox           |
|  \\    /   O peration     | Version:  v2212                                 |
|   \\  /    A nd           | Website:  www.openfoam.com                      |
|    \\/     M anipulation  |                                                 |
\*---------------------------------------------------------------------------*/
FoamFile
{
    version     2.0;
    format      ascii;
    class       dictionary;
    object      topoSetDict;
}
// * * * * * * * * * * * * * * * * * * * * * * * * * * * * * * * * * * * * * //
#include "../myVars" //Include global variables
actions
(
    

    {
        name    waterLineFine;
        type    cellSet;
        action  new;
        source  boxToCell;
        sourceInfo
        {
     	 box ($xmin  #eval "$ymin" #eval "-6*$wave_height") ($xmax  #eval "$ymax" #eval "6*$wave_height");
   	}
    }
    
    
    
    
    
    {
   	 // Mandatory (inherited) entries
    	name        combinedFine;
    	type        cellZoneSet;
    	action      new;

    	// Mandatory entries
    	source      setToCellZone;
    	set         waterLineFine;
    }  
    

   

    
);


// ************************************************************************* //
